@<TRIPOS>MOLECULE
DCM
    5     4     1     0     0
SMALL
bcc


@<TRIPOS>ATOM
      1 C1           0.0000     0.0000     0.8060 c3         1 DCM       0.122200
      2 H1          -0.9050     0.0000     1.3930 h2         1 DCM       0.089500
      3 H2           0.9050     0.0000     1.3930 h2         1 DCM       0.089500
      4 Cl1          0.0000     1.5460    -0.2240 cl         1 DCM      -0.150600
      5 Cl2          0.0000    -1.5460    -0.2240 cl         1 DCM      -0.150600
@<TRIPOS>BOND
     1     1     2 1   
     2     1     3 1   
     3     1     4 1   
     4     1     5 1   
@<TRIPOS>SUBSTRUCTURE
     1 DCM         1 TEMP              0 ****  ****    0 ROOT
