@<TRIPOS>MOLECULE
MOL
   48    53     1     0     0
SMALL
bcc


@<TRIPOS>ATOM
      1 C1          -2.4640    -0.5110     0.0650 ca         1 MOL      -0.139300
      2 C2          -3.2130    -1.6950     0.2210 ca         1 MOL      -0.089000
      3 C3          -4.5390    -1.7940    -0.1890 ca         1 MOL      -0.151500
      4 C4          -5.1790    -0.7020    -0.7780 ca         1 MOL      -0.104500
      5 C5          -4.4870     0.4950    -0.9180 ca         1 MOL      -0.209300
      6 C6          -3.1640     0.5860    -0.4860 ca         1 MOL       0.325500
      7 O1          -2.5810     1.8240    -0.6460 os         1 MOL      -0.405800
      8 C7          -1.5400     2.1290     0.1990 ca         1 MOL       0.325500
      9 C8          -1.3290     3.4760     0.4930 ca         1 MOL      -0.209300
     10 C9          -0.3160     3.8240     1.3800 ca         1 MOL      -0.104500
     11 C10          0.4600     2.8250     1.9800 ca         1 MOL      -0.151500
     12 C11          0.2450     1.4890     1.6610 ca         1 MOL      -0.089000
     13 C12         -0.7380     1.1090     0.7290 ca         1 MOL      -0.139300
     14 C13         -1.0150    -0.3000     0.3550 cc         1 MOL      -0.018000
     15 C14         -0.0250    -1.2460     0.2660 cf         1 MOL      -0.027400
     16 C15          1.4440    -1.0470     0.1870 ca         1 MOL      -0.051800
     17 C16          2.2300    -0.0170    -0.4380 ca         1 MOL      -0.006000
     18 C17          1.6890     1.0350    -1.2220 ca         1 MOL      -0.112000
     19 C18          2.5020     1.9790    -1.8130 ca         1 MOL      -0.126000
     20 C19          3.9040     1.9270    -1.6470 ca         1 MOL      -0.128000
     21 C20          4.4680     0.8980    -0.9280 ca         1 MOL      -0.122000
     22 C21          3.6610    -0.1080    -0.3320 ca         1 MOL      -0.046000
     23 C22          4.2590    -1.2260     0.3130 ca         1 MOL      -0.109000
     24 C23          3.4880    -2.2630     0.7850 ca         1 MOL      -0.123000
     25 C24          2.0860    -2.1750     0.6960 ca         1 MOL      -0.077300
     26 C25          1.0820    -3.2300     1.0770 c3         1 MOL      -0.041100
     27 C26         -0.2130    -2.7690     0.3500 c3         1 MOL      -0.030500
     28 C27         -0.3660    -3.4300    -1.0310 c3         1 MOL      -0.090100
     29 H1          -2.7610    -2.5600     0.6810 ha         1 MOL       0.143500
     30 H2          -5.0720    -2.7290    -0.0470 ha         1 MOL       0.136000
     31 H3          -6.2100    -0.7760    -1.1090 ha         1 MOL       0.136000
     32 H4          -4.9500     1.3790    -1.3440 ha         1 MOL       0.151000
     33 H5          -1.9740     4.2190     0.0360 ha         1 MOL       0.151000
     34 H6          -0.1460     4.8680     1.6220 ha         1 MOL       0.136000
     35 H7           1.2300     3.0910     2.6970 ha         1 MOL       0.136000
     36 H8           0.8450     0.7180     2.1290 ha         1 MOL       0.143500
     37 H9           0.9200    -3.2530     2.1640 hc         1 MOL       0.058700
     38 H10          1.3970    -4.2360     0.7780 hc         1 MOL       0.058700
     39 H11         -1.0680    -3.0320     0.9700 hc         1 MOL       0.056700
     40 H12          0.5040    -3.2150    -1.6590 hc         1 MOL       0.042700
     41 H13         -0.4540    -4.5180    -0.9320 hc         1 MOL       0.042700
     42 H14         -1.2560    -3.0610    -1.5480 hc         1 MOL       0.042700
     43 H15          0.6200     1.0810    -1.3770 ha         1 MOL       0.149000
     44 H16          3.9520    -3.1440     1.2200 ha         1 MOL       0.136000
     45 H17          2.0590     2.7670    -2.4150 ha         1 MOL       0.134000
     46 H18          5.5470     0.8260    -0.8240 ha         1 MOL       0.130000
     47 H19          5.3430    -1.2680     0.3810 ha         1 MOL       0.133000
     48 H20          4.5330     2.6850    -2.1050 ha         1 MOL       0.131000
@<TRIPOS>BOND
     1     1     2 ar  
     2     1     6 ar  
     3     1    14 1   
     4     2     3 ar  
     5     2    29 1   
     6     3     4 ar  
     7     3    30 1   
     8     4     5 ar  
     9     4    31 1   
    10     5     6 ar  
    11     5    32 1   
    12     6     7 1   
    13     7     8 1   
    14     8     9 ar  
    15     8    13 ar  
    16     9    10 ar  
    17     9    33 1   
    18    10    11 ar  
    19    10    34 1   
    20    11    12 ar  
    21    11    35 1   
    22    12    13 ar  
    23    12    36 1   
    24    13    14 1   
    25    14    15 2   
    26    15    16 1   
    27    15    27 1   
    28    16    17 ar  
    29    16    25 ar  
    30    17    18 ar  
    31    17    22 ar  
    32    18    19 ar  
    33    18    43 1   
    34    19    20 ar  
    35    19    45 1   
    36    20    21 ar  
    37    20    48 1   
    38    21    22 ar  
    39    21    46 1   
    40    22    23 ar  
    41    23    24 ar  
    42    23    47 1   
    43    24    25 ar  
    44    24    44 1   
    45    25    26 1   
    46    26    27 1   
    47    26    37 1   
    48    26    38 1   
    49    27    28 1   
    50    27    39 1   
    51    28    40 1   
    52    28    41 1   
    53    28    42 1   
@<TRIPOS>SUBSTRUCTURE
     1 MOL         1 TEMP              0 ****  ****    0 ROOT
